Generators.txt
New Generator.GEN21 Bus1=2115.1 kV=0.416 kW=0 PF=1
New Generator.GEN22 Bus1=2181.1 kV=0.416 kW=0 PF=1
New Generator.GEN23 Bus1=2196.3 kV=0.416 kW=0 PF=1
New Generator.GEN24 Bus1=2219.1 kV=0.416 kW=0 PF=1
New Generator.GEN25 Bus1=2222.2 kV=0.416 kW=0 PF=1
New Generator.GEN26 Bus1=2223.2 kV=0.416 kW=0 PF=1
New Generator.GEN27 Bus1=2232.3 kV=0.416 kW=0 PF=1
New Generator.GEN28 Bus1=2240.1 kV=0.416 kW=0 PF=1
New Generator.GEN29 Bus1=2271.2 kV=0.416 kW=0 PF=1
New Generator.GEN210 Bus1=2278.1 kV=0.416 kW=0 PF=1
New Generator.GEN211 Bus1=2279.1 kV=0.416 kW=0 PF=1
New Generator.GEN212 Bus1=2284.1 kV=0.416 kW=0 PF=1
New Generator.GEN213 Bus1=2317.2 kV=0.416 kW=0 PF=1
New Generator.GEN214 Bus1=2326.1 kV=0.416 kW=0 PF=1
New Generator.GEN215 Bus1=2327.1 kV=0.416 kW=0 PF=1
New Generator.GEN216 Bus1=2332.3 kV=0.416 kW=0 PF=1
New Generator.GEN217 Bus1=2345.3 kV=0.416 kW=0 PF=1
New Generator.GEN218 Bus1=2356.2 kV=0.416 kW=0 PF=1
New Generator.GEN219 Bus1=2361.3 kV=0.416 kW=0 PF=1
New Generator.GEN220 Bus1=2362.3 kV=0.416 kW=0 PF=1
New Generator.GEN221 Bus1=2364.1 kV=0.416 kW=0 PF=1
New Generator.GEN222 Bus1=2399.2 kV=0.416 kW=0 PF=1
New Generator.GEN223 Bus1=2415.3 kV=0.416 kW=0 PF=1
New Generator.GEN224 Bus1=2440.2 kV=0.416 kW=0 PF=1
New Generator.GEN225 Bus1=2443.3 kV=0.416 kW=0 PF=1
New Generator.GEN226 Bus1=2455.2 kV=0.416 kW=0 PF=1
New Generator.GEN227 Bus1=2456.2 kV=0.416 kW=0 PF=1
New Generator.GEN228 Bus1=2461.2 kV=0.416 kW=0 PF=1
New Generator.GEN229 Bus1=2469.1 kV=0.416 kW=0 PF=1
New Generator.GEN230 Bus1=2477.2 kV=0.416 kW=0 PF=1
New Generator.GEN231 Bus1=2479.3 kV=0.416 kW=0 PF=1
