Loads.txt
New Load.LOAD21 Phases=1 Bus1=2115.1 kV=0.23 kW=1 PF=0.95 Daily=Shape_1
New Load.LOAD22 Phases=1 Bus1=2181.1 kV=0.23 kW=1 PF=0.95 Daily=Shape_2
New Load.LOAD23 Phases=1 Bus1=2196.3 kV=0.23 kW=1 PF=0.95 Daily=Shape_3
New Load.LOAD24 Phases=1 Bus1=2219.1 kV=0.23 kW=1 PF=0.95 Daily=Shape_4
New Load.LOAD25 Phases=1 Bus1=2222.2 kV=0.23 kW=1 PF=0.95 Daily=Shape_5
New Load.LOAD26 Phases=1 Bus1=2223.2 kV=0.23 kW=1 PF=0.95 Daily=Shape_6
New Load.LOAD27 Phases=1 Bus1=2232.3 kV=0.23 kW=1 PF=0.95 Daily=Shape_7
New Load.LOAD28 Phases=1 Bus1=2240.1 kV=0.23 kW=1 PF=0.95 Daily=Shape_8
New Load.LOAD29 Phases=1 Bus1=2271.2 kV=0.23 kW=1 PF=0.95 Daily=Shape_9
New Load.LOAD210 Phases=1 Bus1=2278.1 kV=0.23 kW=1 PF=0.95 Daily=Shape_10
New Load.LOAD211 Phases=1 Bus1=2279.1 kV=0.23 kW=1 PF=0.95 Daily=Shape_11
New Load.LOAD212 Phases=1 Bus1=2284.1 kV=0.23 kW=1 PF=0.95 Daily=Shape_12
New Load.LOAD213 Phases=1 Bus1=2317.2 kV=0.23 kW=1 PF=0.95 Daily=Shape_13
New Load.LOAD214 Phases=1 Bus1=2326.1 kV=0.23 kW=1 PF=0.95 Daily=Shape_14
New Load.LOAD215 Phases=1 Bus1=2327.1 kV=0.23 kW=1 PF=0.95 Daily=Shape_15
New Load.LOAD216 Phases=1 Bus1=2332.3 kV=0.23 kW=1 PF=0.95 Daily=Shape_16
New Load.LOAD217 Phases=1 Bus1=2345.3 kV=0.23 kW=1 PF=0.95 Daily=Shape_17
New Load.LOAD218 Phases=1 Bus1=2356.2 kV=0.23 kW=1 PF=0.95 Daily=Shape_18
New Load.LOAD219 Phases=1 Bus1=2361.3 kV=0.23 kW=1 PF=0.95 Daily=Shape_19
New Load.LOAD220 Phases=1 Bus1=2362.3 kV=0.23 kW=1 PF=0.95 Daily=Shape_20
New Load.LOAD221 Phases=1 Bus1=2364.1 kV=0.23 kW=1 PF=0.95 Daily=Shape_21
New Load.LOAD222 Phases=1 Bus1=2399.2 kV=0.23 kW=1 PF=0.95 Daily=Shape_22
New Load.LOAD223 Phases=1 Bus1=2415.3 kV=0.23 kW=1 PF=0.95 Daily=Shape_23
New Load.LOAD224 Phases=1 Bus1=2440.2 kV=0.23 kW=1 PF=0.95 Daily=Shape_24
New Load.LOAD225 Phases=1 Bus1=2443.3 kV=0.23 kW=1 PF=0.95 Daily=Shape_25
New Load.LOAD226 Phases=1 Bus1=2455.2 kV=0.23 kW=1 PF=0.95 Daily=Shape_26
New Load.LOAD227 Phases=1 Bus1=2456.2 kV=0.23 kW=1 PF=0.95 Daily=Shape_27
New Load.LOAD228 Phases=1 Bus1=2461.2 kV=0.23 kW=1 PF=0.95 Daily=Shape_28
New Load.LOAD229 Phases=1 Bus1=2469.1 kV=0.23 kW=1 PF=0.95 Daily=Shape_29
New Load.LOAD230 Phases=1 Bus1=2477.2 kV=0.23 kW=1 PF=0.95 Daily=Shape_30
New Load.LOAD231 Phases=1 Bus1=2479.3 kV=0.23 kW=1 PF=0.95 Daily=Shape_31
